
.MODEL LSK389B NJF(BETA=0.024 VTO=-0.553 LAMBDA=0.046 IS=2E-14 N= 1 RD=8
RS=5.5 CGD=16.8E-12 CGS=25E-12 PB=1.2 FC=0.5 KF=0.0021f AF=1 Mfg=Linear_System)
